# generated using pymatgen
data_P
_symmetry_space_group_name_H-M   'P 1'
_cell_length_a   9.24090739
_cell_length_b   9.20884424
_cell_length_c   23.53130582
_cell_angle_alpha   90.00000000
_cell_angle_beta   104.90164110
_cell_angle_gamma   90.00000000
_symmetry_Int_Tables_number   1
_chemical_formula_structural   P
_chemical_formula_sum   P84
_cell_volume   1935.12326685
_cell_formula_units_Z   84
loop_
 _symmetry_equiv_pos_site_id
 _symmetry_equiv_pos_as_xyz
  1  'x, y, z'
loop_
 _atom_site_type_symbol
 _atom_site_label
 _atom_site_symmetry_multiplicity
 _atom_site_fract_x
 _atom_site_fract_y
 _atom_site_fract_z
 _atom_site_occupancy
  P  P0  1  0.04398820  0.39107371  0.57807614  1
  P  P1  1  0.24936538  0.40614901  0.54845926  1
  P  P2  1  0.29902981  0.79999686  0.17870793  1
  P  P3  1  0.00060357  0.16236256  0.94933990  1
  P  P4  1  0.48660275  0.64391971  0.96466372  1
  P  P5  1  0.79031155  0.13842177  0.57901090  1
  P  P6  1  0.07724710  0.78353719  0.88301764  1
  P  P7  1  0.78908674  0.32152493  0.16977604  1
  P  P8  1  0.85505508  0.38402887  0.82660582  1
  P  P9  1  0.13918949  0.09922137  0.82552893  1
  P  P10  1  0.69092582  0.63478635  0.93321925  1
  P  P11  1  0.82827584  0.96571490  0.38216336  1
  P  P12  1  0.04643347  0.94653806  0.67836214  1
  P  P13  1  0.70097019  0.79999686  0.32129207  1
  P  P14  1  0.56124456  0.45045351  0.66861603  1
  P  P15  1  0.05095871  0.31576156  0.79705703  1
  P  P16  1  0.20968845  0.13842177  0.92098910  1
  P  P17  1  0.86081051  0.90077863  0.17447107  1
  P  P18  1  0.51339725  0.64391971  0.53533628  1
  P  P19  1  0.48660275  0.35608029  0.46466372  1
  P  P20  1  0.17172416  0.03428510  0.61783664  1
  P  P21  1  0.53798183  0.86773475  0.56894190  1
  P  P22  1  0.17172416  0.96571490  0.11783664  1
  P  P23  1  0.31524275  0.51447652  0.89574653  1
  P  P24  1  0.04643347  0.05346194  0.17836214  1
  P  P25  1  0.42230834  0.71972530  0.11683775  1
  P  P26  1  0.95356653  0.05346194  0.32163786  1
  P  P27  1  0.56124456  0.54954649  0.16861603  1
  P  P28  1  0.95601180  0.60892629  0.42192386  1
  P  P29  1  0.85505508  0.61597113  0.32660582  1
  P  P30  1  0.75063462  0.40614901  0.95154074  1
  P  P31  1  0.53798183  0.13226525  0.06894190  1
  P  P32  1  0.43875544  0.54954649  0.33138397  1
  P  P33  1  0.42230834  0.28027470  0.61683775  1
  P  P34  1  0.82827584  0.03428510  0.88216336  1
  P  P35  1  0.58507938  0.64550895  0.83657829  1
  P  P36  1  0.41492062  0.35449105  0.16342171  1
  P  P37  1  0.46201817  0.86773475  0.93105810  1
  P  P38  1  0.46201817  0.13226525  0.43105810  1
  P  P39  1  0.59045026  0.82140981  0.66497690  1
  P  P40  1  0.04398820  0.60892629  0.07807614  1
  P  P41  1  0.99939643  0.16236256  0.55066010  1
  P  P42  1  0.94904129  0.68423844  0.20294297  1
  P  P43  1  0.59045026  0.17859019  0.16497690  1
  P  P44  1  0.00060357  0.83763744  0.44933990  1
  P  P45  1  0.58507938  0.35449105  0.33657829  1
  P  P46  1  0.30907418  0.63478635  0.56678075  1
  P  P47  1  0.24936538  0.59385099  0.04845926  1
  P  P48  1  0.21091326  0.32152493  0.33022396  1
  P  P49  1  0.75063462  0.59385099  0.45154074  1
  P  P50  1  0.92275290  0.78353719  0.61698236  1
  P  P51  1  0.92275290  0.21646281  0.11698236  1
  P  P52  1  0.29902981  0.20000314  0.67870793  1
  P  P53  1  0.21091326  0.67847507  0.83022396  1
  P  P54  1  0.51339725  0.35608029  0.03533628  1
  P  P55  1  0.94904129  0.31576156  0.70294297  1
  P  P56  1  0.68475725  0.51447652  0.60425347  1
  P  P57  1  0.07724710  0.21646281  0.38301764  1
  P  P58  1  0.41492062  0.64550895  0.66342171  1
  P  P59  1  0.57769166  0.71972530  0.38316225  1
  P  P60  1  0.13918949  0.90077863  0.32552893  1
  P  P61  1  0.57769166  0.28027470  0.88316225  1
  P  P62  1  0.43875544  0.45045351  0.83138397  1
  P  P63  1  0.75210335  0.08652980  0.04914595  1
  P  P64  1  0.69092582  0.36521365  0.43321925  1
  P  P65  1  0.05095871  0.68423844  0.29705703  1
  P  P66  1  0.78908674  0.67847507  0.66977604  1
  P  P67  1  0.14494492  0.38402887  0.67339418  1
  P  P68  1  0.75210335  0.91347020  0.54914595  1
  P  P69  1  0.30907418  0.36521365  0.06678075  1
  P  P70  1  0.86081051  0.09922137  0.67447107  1
  P  P71  1  0.40954974  0.82140981  0.83502310  1
  P  P72  1  0.20968845  0.86157823  0.42098910  1
  P  P73  1  0.31524275  0.48552348  0.39574653  1
  P  P74  1  0.68475725  0.48552348  0.10425347  1
  P  P75  1  0.24789665  0.91347020  0.95085405  1
  P  P76  1  0.79031155  0.86157823  0.07901090  1
  P  P77  1  0.40954974  0.17859019  0.33502310  1
  P  P78  1  0.99939643  0.83763744  0.05066010  1
  P  P79  1  0.24789665  0.08652980  0.45085405  1
  P  P80  1  0.14494492  0.61597113  0.17339418  1
  P  P81  1  0.95356653  0.94653806  0.82163786  1
  P  P82  1  0.70097019  0.20000314  0.82129207  1
  P  P83  1  0.95601180  0.39107371  0.92192386  1
